
  Mrv0541 04151616183D          

 43 46  0  0  0  0            999 V2000
   -7.3510  -17.0520   18.5560 C   0  0  0  0  0  0  0  0  0  0  0  0
   -8.0890  -18.2290   19.1070 N   0  3  2  0  0  0  0  0  0  0  0  0
   -9.5080  -17.8630   19.4940 C   0  0  2  0  0  0  0  0  0  0  0  0
  -10.2440  -18.9490   20.3010 C   0  0  2  0  0  0  0  0  0  0  0  0
   -9.3950  -19.5280   21.3730 N   0  0  0  0  0  0  0  0  0  0  0  0
   -8.1440  -20.0530   20.8020 C   0  0  2  0  0  0  0  0  0  0  0  0
   -7.3160  -18.9010   20.2190 C   0  0  2  0  0  0  0  0  0  0  0  0
   -9.8070  -19.5820   22.7180 C   0  0  0  0  0  0  0  0  0  0  0  0
  -11.0250  -19.1830   22.9660 N   0  0  0  0  0  0  0  0  0  0  0  0
  -11.7310  -19.2740   24.1720 C   0  0  0  0  0  0  0  0  0  0  0  0
  -12.7460  -18.3160   24.3420 C   0  0  0  0  0  0  0  0  0  0  0  0
  -13.6960  -18.4480   25.3510 C   0  0  0  0  0  0  0  0  0  0  0  0
  -13.6540  -19.5350   26.2130 C   0  0  0  0  0  0  0  0  0  0  0  0
  -12.6370  -20.4770   26.0780 C   0  0  0  0  0  0  0  0  0  0  0  0
  -11.6720  -20.3690   25.0570 C   0  0  0  0  0  0  0  0  0  0  0  0
  -10.6330  -21.3090   25.0660 N   0  0  0  0  0  0  0  0  0  0  0  0
   -9.3070  -21.1150   24.6680 C   0  0  0  0  0  0  0  0  0  0  0  0
   -8.8810  -20.1270   23.7750 C   0  0  0  0  0  0  0  0  0  0  0  0
   -7.5230  -19.7760   23.7300 C   0  0  0  0  0  0  0  0  0  0  0  0
   -6.5670  -20.5200   24.4170 C   0  0  0  0  0  0  0  0  0  0  0  0
   -6.9730  -21.5760   25.2110 C   0  0  0  0  0  0  0  0  0  0  0  0
   -8.3280  -21.8490   25.3560 C   0  0  0  0  0  0  0  0  0  0  0  0
  -14.9660  -17.2990   25.4960 Cl  0  0  0  0  0  0  0  0  0  0  0  0
   -8.1310  -18.9330   18.3400 H   0  0  0  0  0  0  0  0  0  0  0  0
   -6.3540  -17.3790   18.2590 H   0  0  0  0  0  0  0  0  0  0  0  0
   -7.2870  -16.2800   19.3260 H   0  0  0  0  0  0  0  0  0  0  0  0
   -7.9000  -16.6810   17.6900 H   0  0  0  0  0  0  0  0  0  0  0  0
  -10.0490  -17.6320   18.5710 H   0  0  0  0  0  0  0  0  0  0  0  0
   -9.4290  -16.9580   20.0910 H   0  0  0  0  0  0  0  0  0  0  0  0
  -10.5550  -19.7600   19.6370 H   0  0  0  0  0  0  0  0  0  0  0  0
  -11.1680  -18.5100   20.6920 H   0  0  0  0  0  0  0  0  0  0  0  0
   -8.4020  -20.7620   20.0090 H   0  0  0  0  0  0  0  0  0  0  0  0
   -7.5490  -20.6300   21.5040 H   0  0  0  0  0  0  0  0  0  0  0  0
   -7.1010  -18.1360   20.9710 H   0  0  0  0  0  0  0  0  0  0  0  0
   -6.3810  -19.2670   19.7890 H   0  0  0  0  0  0  0  0  0  0  0  0
  -12.8190  -17.4890   23.6380 H   0  0  0  0  0  0  0  0  0  0  0  0
  -14.4100  -19.6670   26.9810 H   0  0  0  0  0  0  0  0  0  0  0  0
  -12.6030  -21.3100   26.7790 H   0  0  0  0  0  0  0  0  0  0  0  0
  -10.8580  -22.2170   25.4670 H   0  0  0  0  0  0  0  0  0  0  0  0
   -7.1920  -18.9440   23.1160 H   0  0  0  0  0  0  0  0  0  0  0  0
   -5.5090  -20.2900   24.3170 H   0  0  0  0  0  0  0  0  0  0  0  0
   -6.2430  -22.1920   25.7260 H   0  0  0  0  0  0  0  0  0  0  0  0
   -8.6190  -22.6610   26.0150 H   0  0  0  0  0  0  0  0  0  0  0  0
 27  1  1  0  0  0  0
 25  1  1  0  0  0  0
 24  2  1  0  0  0  0
  1  2  1  0  0  0  0
  1 26  1  0  0  0  0
 28  3  1  0  0  0  0
  2  3  1  0  0  0  0
  2  7  1  0  0  0  0
  3 29  1  0  0  0  0
  3  4  1  0  0  0  0
 30  4  1  0  0  0  0
 35  7  1  0  0  0  0
 32  6  1  0  0  0  0
  7  6  1  0  0  0  0
  7 34  1  0  0  0  0
  4 31  1  0  0  0  0
  4  5  1  0  0  0  0
  6  5  1  0  0  0  0
  6 33  1  0  0  0  0
  5  8  1  0  0  0  0
  8  9  2  0  0  0  0
  8 18  1  0  0  0  0
  9 10  1  0  0  0  0
 40 19  1  0  0  0  0
 36 11  1  0  0  0  0
 19 18  4  0  0  0  0
 19 20  4  0  0  0  0
 18 17  4  0  0  0  0
 10 11  4  0  0  0  0
 10 15  4  0  0  0  0
 41 20  1  0  0  0  0
 11 12  4  0  0  0  0
 20 21  4  0  0  0  0
 17 16  1  0  0  0  0
 17 22  4  0  0  0  0
 15 16  1  0  0  0  0
 15 14  4  0  0  0  0
 16 39  1  0  0  0  0
 21 22  4  0  0  0  0
 21 42  1  0  0  0  0
 12 23  1  0  0  0  0
 12 13  4  0  0  0  0
 22 43  1  0  0  0  0
 14 13  4  0  0  0  0
 14 38  1  0  0  0  0
 13 37  1  0  0  0  0
M  CHG  1   2   1
M  END
$$$$
